$ Generated by PRO/II Keyword Generation System <version 10.2>
$ Generated on: Mon Jul 29 20:34:15 2019
TITLE
  PRINT HISTORY=ON
  TOLERANCE DEFAULT=V94 
  DIMENSION SI, MDUTY=ON, BASIS=MOLE, TEMP=C, PRES=ATM, STDTEMP=0, &
         STDPRES=1
  SEQUENCE SIMSCI
  CALCULATION TVPBASIS=37.7777777778, RVPBASIS=APIN
COMPONENT DATA
  CURRENT SEARCH = SIMSCI,PROCESS
  LIBID 1,H2O/2,MEA/3,CO2/4,N2/5,O2, BANK=CURRENT
  ASSAY FIT=ALTERNATE, CONVERSION=API94, CURVEFIT=CURRENT, &
         KVRECONCILE=TAILS, FORMATION=VER91
THERMODYNAMIC DATA
  TRESET CONSTANT = NOFLASH
  METHOD SYSTEM=AMIN, SET=AMIN01, DEFAULT
STREAM DATA
  PROPERTY STREAM=S1, TEMPERATURE=59.2, PRESSURE=1.01, PHASE=M,  &
        RATE(GV)=507.8, COMPOSITION(WT)=1,0.016/3,0.184/4,0.752/ &
        5,0.047, NORMALIZE
  PROPERTY STREAM=S2, TEMPERATURE=40.1, PRESSURE=1.6, PHASE=M,  &
        RATE(LV)=2.6, COMPOSITION(M)=1,0.846/2,0.125/3,0.029
UNIT OPERATIONS
  COLUMN UID=T1
      PARAMETER TRAY=20,SURE FREEWATER
      FEED S2,1,TNOTSEPARATE/S1,20,TNOTSEPARATE, NOTSEPARATE
      PRODUCT  OVHD(M)=S3,10000, BTMS(M)=S4
      PSPEC PTOP=0.8, DPCOLUMN=0.2
      PRINT COMPOSITION=M, PROPTABLE=ALL, TLOADING, FRIDATA
  PUMP UID=P1
      FEED S4
      PRODUCT  M=S5
      OPERATION DP=1
  HX   UID=E1
      COLD FEED=S5, M=S6
      OPER COCI=50
  COLUMN UID=T2
      PARAMETER TRAY=20,IO
      FEED S6,2,TSEPARATE, SEPARATE
      PRODUCT  OVHD(M)=S7,50, BTMS(M)=S8, SUPERSEDE=ON
      CONDENSER TYPE=PART, TEST=279.0420936595
      DUTY  1,1,-128.2939537637,CONDENSER
      DUTY  2,20,82.79268335911,REBOILER
      PSPEC PTOP=1
      PRINT COMPOSITION=M, PROPTABLE=ALL, TLOADING, FRIDATA
      ESTIMATE MODEL=CONVENTIONAL, RRATIO=3, CTEMP=279.0420936595, &
                 TTEMP=100.1509035021, BTEMP=100.7655688998, &
                 RTEMP=109.051122308
      TEMPERATURE 1,279.0420936595/2,100.1509035021/3,100.1633762737/ &
                4,100.1624752278/5,100.1619355805/6,100.1628191062/ &
                7,100.1626478686/8,100.1628991673/9,100.1635379079/ &
                10,100.1645288048/11,100.1659692179/ &
                12,100.1679822049/13,100.1707676001/ &
                14,100.1742487602/15,100.179104568/16,100.1860593102/ &
                17,100.198035171/18,100.244615555/19,100.7655688998/ &
                20,109.051122308
      VAPOR(M) 1,47.15758217047/2,5053.072202529/3,3529.271521583/ &
                4,3296.535759588/5,3304.625574904/6,3289.414987957/ &
                7,3296.126681959/8,3295.608346947/9,3288.002671261/ &
                10,3274.353922104/11,3253.075761858/ &
                12,3222.368608922/13,3180.213322178/ &
                14,3124.252468716/15,3051.527038589/16,2957.98447331/ &
                17,2837.390516149/18,2678.963197692/ &
                19,2462.623831374/20,2113.133748302
      LIQUID(L,M) 1,5008.002264197/2,3590.908222605/3,3358.172460611/ &
                4,3366.262275926/5,3351.051688979/6,3357.763382981/ &
                7,3357.245047969/8,3349.639372284/9,3335.990623126/ &
                10,3314.71246288/11,3284.005309944/12,3241.850023201/ &
                13,3185.889169739/14,3113.163739612/ &
                15,3019.621174332/16,2899.027217171/ &
                17,2740.599898714/18,2524.260532396/ &
                19,2174.770449325/20,61.63670102238
      CESTIMATE(V) 1,0.962591630153,6.141075433565e-007, &
                0.03733930212288,6.142534999099e-005, &
                7.02826653541e-006/2,0.9995551571568, &
                0.0002306219536389,0.0002142195831452, &
                1.086585814322e-009,2.198572049157e-010/3, &
                0.9996958899757,0.0002720243174032, &
                3.208570686929e-005,1.584774388328e-014, &
                5.295007872232e-015/4,0.9996975535887, &
                0.0002732501925354,2.919621876929e-005, &
                2.563342557495e-019,1.413991653938e-019/5, &
                0.9996939040575,0.0002759013804193, &
                3.019456210834e-005,4.184687956803e-024, &
                3.807301285005e-024/6,0.9996970993448, &
                0.0002736873620005,2.921329324435e-005, &
                6.919070431105e-029,1.036982641748e-028/7, &
                0.9996965208176,0.0002741477324412, &
                2.933144991234e-005,0,0/8,0.9996953805765, &
                0.0002749340434062,2.968538004916e-005,0,0/9, &
                0.9996938606506,0.0002760428928288, &
                3.009645657546e-005,0,0/10,0.9996915872089, &
                0.0002778148373631,3.059795376536e-005,0,0/11, &
                0.9996883690525,0.0002804343309156, &
                3.119661658602e-005,0,0/12,0.9996839591122, &
                0.0002841297963411,3.191109146838e-005,0,0/13, &
                0.999678024547,0.0002892068625416, &
                3.276859047761e-005,0,0/14,0.9996700857988, &
                0.0002961064057505,3.380779541054e-005,0,0/15, &
                0.9996593778246,0.000305533613622,3.50885617514e-005, &
                0,0/16,0.9996443341069,0.0003189502829232, &
                3.671561017403e-005,0,0/17,0.9996182662752, &
                0.0003428409500849,3.889277471458e-005,0,0/18, &
                0.9995104978942,0.0004473703339132, &
                4.213177190263e-005,0,0/19,0.9982733366804, &
                0.00166749781346,5.916550616266e-005,0,0/20, &
                0.9795168183504,0.01967848649469,0.0008046951548747, &
                0,0
      CESTIMATE(L) 1,0.9997648745262,0.0002333308811582, &
                1.794485768967e-006,8.85019008492e-011, &
                1.833317817539e-011/2,0.9948165888617, &
                0.003989658292058,0.001193752846174, &
                1.557572282592e-014,5.204120888522e-015/3, &
                0.9944800654353,0.004248509654611,0.00127142491009, &
                2.516294354733e-019,1.388038912724e-019/4, &
                0.9944890214164,0.004241558939047,0.001269419644544, &
                4.108065774892e-024,3.737589102242e-024/5, &
                0.994468532716,0.004257385956547,0.001274081327444, &
                6.791806301782e-029,1.017909170197e-028/6, &
                0.9944784159737,0.004249875026267,0.001271709000075, &
                1.107191082574e-033,2.736897373867e-033/7, &
                0.9944764910279,0.004251260725424,0.00127224824665,0, &
                0/8,0.9944631490836,0.004261377799908, &
                0.001275473116464,0,0/9,0.994439516906, &
                0.004279422457941,0.001281060636045,0,0/10, &
                0.994402643934,0.004307680794138,0.001289675271904,0, &
                0/11,0.9943488924914,0.004348963743478, &
                0.001302143765133,0,0/12,0.9942736964013, &
                0.004406801210613,0.001319502388129,0,0/13, &
                0.9941709830137,0.004485893732482,0.001343123253784, &
                0,0/14,0.9940320246022,0.004593010316475, &
                0.001374965081357,0,0/15,0.9938429624296, &
                0.004738971628637,0.001418065941782,0,0/16, &
                0.9935761229251,0.00494621874025,0.001477658334607,0, &
                0/17,0.9931214968793,0.005314507147458, &
                0.001563995973281,0,0/18,0.991366981027, &
                0.006921975255601,0.001711043717406,0,0/19, &
                0.9720321888388,0.02526690715071,0.002700904010475,0, &
                0/20,0.7154314468751,0.2168586064477, &
                0.06770994667718,0,0
      SPEC ID=COL2SPEC1, STREAM=S7, RATE(KGM/H),TOTAL,WET, VALUE=40
      SPEC ID=COL2SPEC2, STREAM=S8, TEMPERATURE(C), VALUE=105
      VARY DNAME=CONDENSER
      VARY DNAME=REBOILER
      REBOILER TYPE=KETTLE
      METHOD SET=AMIN01
END

 SIMSCI                       R                                        PAGE R-1
 PROJECT                PRO/II PROCESS ENGINEERING  10.2 (64 bit)             
 PROBLEM                                 INPUT                                 
                                   THERMODYNAMIC DATA                  07/29/19
 ==============================================================================
 
                       VLE K-VALUE DATA FOR SET 'AMIN01'
 
 SRK SIMSCI PURE COMPONENT DATA
 
 COMP    CRITICAL    CRITICAL ALPHA          C1          C2          C3
      TEMPERATURE    PRESSURE  TYPE
            DEG C         ATM
 ----  ----------  ---------- -----  ----------  ----------  ----------
    1      373.98      217.67     9      1.0945     -0.6751      0.6923
    2      405.05       70.31     9      0.8889      1.9991     -2.5625
    3       31.06       72.86     6      0.2438      0.8484      2.3515
    4     -146.95       33.56     6      0.1523      0.8945      2.3404
    5     -118.57       49.77     6      0.1536      0.9088      2.4355
 
 
 SRK SIMSCI INTERACTION PARAMETERS
 
 KIJ = A(I,J) + B(I,J)/T + C(I,J)/T**2
 
    I   J    KA(I,J)    KB(I,J)    KC(I,J)     C(I,J)  UNITS  FROM
             KA(J,I)    KB(J,I)    KC(J,I)     C(J,I)
  --- --- ---------- ---------- ---------- ----------  -----  ----
    1   3     0.2887     -31.05       0.00     0.7000  DEG K  SIMSCI SRKM BANK
              0.2774    -123.38       0.00     1.5000
    1   4     0.5000       0.00       0.00     1.0000  DEG K  SIMSCI SRKM BANK
             -1.3329      92.57       0.00     1.0000
    1   5     0.5000       0.00       0.00     1.0000  DEG K  SIMSCI SRKM BANK
              0.1381    -181.43       0.00     1.0000
    3   4    -0.0300       0.00       0.00     1.0000  DEG K  SIMSCI SRK BANK
             -0.0300       0.00       0.00     1.0000
    4   5 -7.800E-03       0.00       0.00     1.0000  DEG K  SIMSCI SRK BANK
          -7.800E-03       0.00       0.00     1.0000
 
 ALL PAIRS NOT PRINTED ARE DEFAULTED TO IDEAL

 SIMSCI                       R                                        PAGE R-1
 PROJECT                PRO/II PROCESS ENGINEERING  10.2 (64 bit)             
 PROBLEM                                 INPUT                                 
                                   THERMODYNAMIC DATA                          
 ==============================================================================
 
                THERMODYNAMIC SETS USED FOR EACH UNIT OPERATION
 
 DEFAULT METHOD IS AMIN01
 
 THERMODYNAMIC SET   UNIT OPERATIONS
 -----------------   ---------------
 AMIN01              T1, P1, E1, T2
 
 UNIT IDENTIFIER     UNIT OPERATION                THERMODYNAMIC SET
 ---------------     --------------                -----------------
 T1                  COLUMN                        AMIN01
 P1                  PUMP                          AMIN01
 E1                  HEAT EXCHANGER                AMIN01, AMIN01
 T2                  COLUMN                        AMIN01

 SIMSCI                       R                                        PAGE R-2
 PROJECT                PRO/II PROCESS ENGINEERING  10.2 (64 bit)             
 PROBLEM                                 INPUT                                 
                                   THERMODYNAMIC DATA                          
 ==============================================================================
 
                    THERMODYNAMIC METHODS USED FOR EACH SET
 
 THERMODYNAMIC SET        AMIN01 (DEFAULT)
 
   PROPERTY               METHOD
   --------               ------
   KVALUE(VLE)            AMINE SYSTEM
   KVALUE(LLE)            UNSPECIFIED
   KVALUE(SLE)            UNSPECIFIED
   LIQUID ENTHALPY        AMINE SYSTEM
   VAPOR  ENTHALPY        SRK-MODIFIED-PANAGIOTOPOULOS-REID
   LIQUID DENSITY         IDEAL
   VAPOR  DENSITY         SRK-MODIFIED-PANAGIOTOPOULOS-REID
   LIQUID ENTROPY         SRK-MODIFIED-PANAGIOTOPOULOS-REID
   VAPOR  ENTROPY         SRK-MODIFIED-PANAGIOTOPOULOS-REID
   LIQUID VISCOSITY       IDEAL
   VAPOR  VISCOSITY       IDEAL
   LIQUID CONDUCTIVITY    IDEAL
   VAPOR  CONDUCTIVITY    IDEAL
   SURFACE TENSION        IDEAL
   LIQUID DIFFUSIVITY     UNSPECIFIED

 SIMSCI                       R                                        PAGE H-1
 PROJECT                PRO/II PROCESS ENGINEERING  10.2 (64 bit)             
 PROBLEM                              CALCULATION                              
                                        HISTORY                        07/29/19
 ==============================================================================
 
 *** PROBLEM SOLUTION BEGINS
 ** MESSAGE **  The liquid enthalpy of CO2 at temperature 313.25 K is outside
                the acceptable range of 220 K through 290 K.
     FEED FLASH    COMPLETE
 ** MESSAGE **  The liquid enthalpy of N2 at temperature 313.25 K is outside
                the acceptable range of 63.15 K through 112 K.
 ** MESSAGE **  The liquid enthalpy of O2 at temperature 313.25 K is outside
                the acceptable range of 54.36 K through 142 K.
 ** MESSAGE **  UNIT 2, 'T1' - Stream S3 - The given FIXED STREAM RATE (20.816)
                and the PRODUCT RATE ESTIMATE (1E4) were DIFFERENT, so the rate
                estimate has been changed to 20.816.
      SURE
      ITER     ALFA     ALFA MAX   ERROR(H)   ERROR(E)   ERROR(M)  ERROR SUM
      ----  ---------  ---------  ---------  ---------  ---------  ---------
         1  1.000E+00  1.000E+00  7.235E-03  3.761E-03  7.845E-03  6.451E-02
         2  1.000E+00  1.000E+00  1.685E-03  1.034E-03  1.521E-03  2.147E-02
         3  1.000E+00  1.000E+00  3.890E-04  3.856E-04  4.954E-04  6.210E-03
         4  1.000E+00  1.000E+00  9.045E-05  1.151E-04  1.281E-04  1.667E-03
         5  1.000E+00  1.000E+00  2.115E-05  2.989E-05  3.264E-05  4.350E-04
     UNIT    2     SOLVED                 - 'T1          '
     UNIT    3     SOLVED                 - 'P1          '
     UNIT    4     SOLVED                 - 'E1          '
 ** MESSAGE **  UNIT 10, 'T2' - Stream S7 - The given FIXED STREAM RATE
                (73.147) and the PRODUCT RATE ESTIMATE (50) were DIFFERENT, so
                the rate estimate has been changed to 73.147.
 ** MESSAGE **  UNIT 10, 'T2' - Stream S7 - The given PRODUCT RATE ESTIMATE
                (73.147) and the RATE ESTIMATE of VAPOR LEAVING the TOP tray
                (47.158) are DIFFERENT, so the latter has been changed to
                73.147.
 ** MESSAGE **  UNIT 10, 'T2' - Stream S8 - The given PRODUCT RATE ESTIMATE
                (35.647) and the RATE ESTIMATE of LIQUID LEAVING the BOTTOM
                tray (61.637) are DIFFERENT, so the latter has been changed to
                35.647.
 ** MESSAGE **  The liquid enthalpy of H2O at temperature 552.19 K is outside
                the acceptable range of 273.16 K through 533.15 K.
 ** MESSAGE **  The liquid enthalpy of MEA at temperature 552.19 K is outside
                the acceptable range of 298.15 K through 443.15 K.
             INNER  0 : E(ENTH+SPEC) =  1.23136E+00
             CALCULATING NEW MATRIX
             INNER  1 : E(ENTH+SPEC) =  1.22297E+00  ALPHA =  1.18618E-03
             INNER  2 : E(ENTH+SPEC) =  8.54711E-01  ALPHA =  9.89849E-03
             INNER  3 : E(ENTH+SPEC) =  8.29785E-01  ALPHA = -9.78542E-03
             INNER  4 : E(ENTH+SPEC) =  8.17092E-01  ALPHA =  1.16459E-03
       ITER  1 E(K) =  4.385E+01 E(ENTH+SPEC) =  8.171E-01  E(SUM) =  3.141E+00
               DAMP =  1.000E+00
             INNER  0 : E(ENTH+SPEC) =  8.00843E-01
             INNER  1 : E(ENTH+SPEC) =  7.54142E-01  ALPHA =  3.93602E-02
             INNER  2 : E(ENTH+SPEC) =  7.51634E-01  ALPHA = -3.49333E-03
             INNER  3 : E(ENTH+SPEC) =  7.51593E-01  ALPHA =  1.31425E-04
             INNER  4 : E(ENTH+SPEC) =  7.51386E-01  ALPHA = -1.13839E-03
             INNER  5 : E(ENTH+SPEC) =  7.51212E-01  ALPHA = -1.18356E-03
             CALCULATING NEW MATRIX
             INNER  1 : E(ENTH+SPEC) =  7.51213E-01  ALPHA =  5.80010E-09
             INNER  2 : E(ENTH+SPEC) =  7.51217E-01  ALPHA =  5.56374E-09

 SIMSCI                       R                                        PAGE H-2
 PROJECT                PRO/II PROCESS ENGINEERING  10.2 (64 bit)             
 PROBLEM                              CALCULATION                              
                                        HISTORY                        07/29/19
 ==============================================================================
 
             INNER  3 : E(ENTH+SPEC) =  7.51217E-01  ALPHA =  9.67241E-09
             INNER  4 : E(ENTH+SPEC) =  7.51217E-01  ALPHA =  4.12578E-10
             CALCULATING NEW MATRIX
             INNER  1 : E(ENTH+SPEC) =  7.51220E-01  ALPHA =  1.70768E-08
             INNER  2 : E(ENTH+SPEC) =  7.51220E-01  ALPHA =  1.07752E-08
             INNER  3 : E(ENTH+SPEC) =  7.51222E-01  ALPHA =  7.22393E-11
             INNER  4 : E(ENTH+SPEC) =  7.51224E-01  ALPHA =  1.17754E-08
             CALCULATING NEW MATRIX
             INNER  1 : E(ENTH+SPEC) =  7.51224E-01  ALPHA =  5.56405E-09
             INNER  2 : E(ENTH+SPEC) =  7.51228E-01  ALPHA =  5.26598E-09
             INNER  3 : E(ENTH+SPEC) =  7.51228E-01  ALPHA =  9.61369E-09
             INNER  4 : E(ENTH+SPEC) =  7.51228E-01  ALPHA =  4.47515E-10
             CALCULATING NEW MATRIX
             INNER  1 : E(ENTH+SPEC) =  7.51232E-01  ALPHA =  1.47712E-08
             INNER  2 : E(ENTH+SPEC) =  7.51232E-01  ALPHA =  1.07842E-08
             INNER  3 : E(ENTH+SPEC) =  7.51233E-01  ALPHA =  5.02905E-11
             INNER  4 : E(ENTH+SPEC) =  7.51235E-01  ALPHA =  1.13179E-08
             CALCULATING NEW MATRIX
             INNER  1 : E(ENTH+SPEC) =  7.51236E-01  ALPHA =  4.48030E-09
             INNER  2 : E(ENTH+SPEC) =  7.51240E-01  ALPHA =  5.10050E-09
             INNER  3 : E(ENTH+SPEC) =  7.51240E-01  ALPHA =  9.50193E-09
             INNER  4 : E(ENTH+SPEC) =  7.51240E-01  ALPHA =  5.95154E-10
             CALCULATING NEW MATRIX
             INNER  1 : E(ENTH+SPEC) =  7.51243E-01  ALPHA =  2.33597E-08
             INNER  2 : E(ENTH+SPEC) =  7.51243E-01  ALPHA =  1.02846E-08
             INNER  3 : E(ENTH+SPEC) =  7.51245E-01  ALPHA =  6.09675E-11
             INNER  4 : E(ENTH+SPEC) =  7.51247E-01  ALPHA =  8.85558E-09
             CALCULATING NEW MATRIX
             INNER  1 : E(ENTH+SPEC) =  7.51247E-01  ALPHA =  5.43539E-09
             INNER  2 : E(ENTH+SPEC) =  7.51251E-01  ALPHA =  5.14730E-09
             INNER  3 : E(ENTH+SPEC) =  7.51251E-01  ALPHA =  9.68451E-09
             INNER  4 : E(ENTH+SPEC) =  7.51251E-01  ALPHA =  4.20451E-10
             CALCULATING NEW MATRIX
             INNER  1 : E(ENTH+SPEC) =  7.51255E-01  ALPHA =  8.80297E-09
             INNER  2 : E(ENTH+SPEC) =  7.51255E-01  ALPHA =  1.01710E-08
             INNER  3 : E(ENTH+SPEC) =  7.51256E-01  ALPHA =  1.10419E-10
             INNER  4 : E(ENTH+SPEC) =  7.51258E-01  ALPHA =  1.18031E-08
             CALCULATING NEW MATRIX
             INNER  1 : E(ENTH+SPEC) =  7.51259E-01  ALPHA =  7.42130E-09
             INNER  2 : E(ENTH+SPEC) =  7.51263E-01  ALPHA =  5.38791E-09
             INNER  3 : E(ENTH+SPEC) =  7.51263E-01  ALPHA =  9.79864E-09
             INNER  4 : E(ENTH+SPEC) =  7.51263E-01  ALPHA =  2.39432E-10
             CALCULATING NEW MATRIX
             INNER  1 : E(ENTH+SPEC) =  7.51267E-01  ALPHA =  1.73979E-08
             INNER  2 : E(ENTH+SPEC) =  7.51267E-01  ALPHA =  1.03390E-08
             INNER  3 : E(ENTH+SPEC) =  7.51268E-01  ALPHA =  6.41011E-11
             INNER  4 : E(ENTH+SPEC) =  7.51270E-01  ALPHA =  1.15092E-08
             CALCULATING NEW MATRIX
             INNER  1 : E(ENTH+SPEC) =  7.51270E-01  ALPHA =  5.65497E-09
             INNER  2 : E(ENTH+SPEC) =  7.51274E-01  ALPHA =  5.11399E-09
             INNER  3 : E(ENTH+SPEC) =  7.51274E-01  ALPHA =  1.01834E-08
             INNER  4 : E(ENTH+SPEC) =  7.51274E-01  ALPHA =  3.07600E-11
             CALCULATING NEW MATRIX
             INNER  1 : E(ENTH+SPEC) =  7.51278E-01  ALPHA =  3.00639E-08

 SIMSCI                       R                                        PAGE H-3
 PROJECT                PRO/II PROCESS ENGINEERING  10.2 (64 bit)             
 PROBLEM                              CALCULATION                              
                                        HISTORY                        07/29/19
 ==============================================================================
 
             INNER  2 : E(ENTH+SPEC) =  7.51278E-01  ALPHA =  1.03430E-08
             INNER  3 : E(ENTH+SPEC) =  7.51279E-01  ALPHA =  8.54413E-11
             INNER  4 : E(ENTH+SPEC) =  7.51281E-01  ALPHA =  1.12861E-08
             CALCULATING NEW MATRIX
             INNER  1 : E(ENTH+SPEC) =  7.51282E-01  ALPHA =  7.28256E-09
             INNER  2 : E(ENTH+SPEC) =  7.51286E-01  ALPHA =  5.01436E-09
             INNER  3 : E(ENTH+SPEC) =  7.51286E-01  ALPHA =  9.88549E-09
             INNER  4 : E(ENTH+SPEC) =  7.51286E-01  ALPHA =  1.86012E-10
             CALCULATING NEW MATRIX
             INNER  1 : E(ENTH+SPEC) =  7.51290E-01  ALPHA =  2.23016E-08
             INNER  2 : E(ENTH+SPEC) =  7.51290E-01  ALPHA =  1.02935E-08
             INNER  3 : E(ENTH+SPEC) =  7.51291E-01  ALPHA =  1.11568E-10
             INNER  4 : E(ENTH+SPEC) =  7.51293E-01  ALPHA =  1.08437E-08
             CALCULATING NEW MATRIX
             INNER  1 : E(ENTH+SPEC) =  7.51293E-01  ALPHA =  4.66339E-09
             INNER  2 : E(ENTH+SPEC) =  7.51297E-01  ALPHA =  5.65323E-09
             INNER  3 : E(ENTH+SPEC) =  7.51297E-01  ALPHA =  9.65721E-09
             INNER  4 : E(ENTH+SPEC) =  7.51297E-01  ALPHA =  5.24403E-10
 *** ERROR ***  COLUMN calculations TERMINATED. Alpha ( the damping factor )
                was BELOW .01 for 4 consecutive iterations after 15 new matrix
                calculations.
 *** A FATAL ERROR OCCURRED ON ITERATION    2
 *** ERROR HISTORY IS NOT AVAILABLE FOR THIS ITERATION
     UNIT   10 NOT SOLVED                 - 'T2          '
 *** PROBLEM SOLUTION NOT REACHED
 ***
 *** GLOBAL DEVIATION    0.00 MOLE PERCENT
 ***
 ** WARNING **  Unit 'T2' DID NOT SOLVE
  
 *** RUN STATISTICS
     STARTED    20:34:08 07/29/19           1 ERROR
     FINISHED   20:34:13 07/29/19           1 WARNING
     RUN TIMES                              9 MESSAGES
       INTERACTIVE     0 MIN,  0.00 SEC
       CALCULATIONS    0 MIN,  4.74 SEC
       TOTAL           0 MIN,  4.74 SEC
 ** WARNING **  PROBLEM SOLUTION NOT REACHED. ** Note- Default Tolerances in
                unit specifications, recycle loops and columns are tightened
                starting with PRO/II 9.4. If the file is happened to converge
                in previous version, probable reason for non-convergence could
                be tightened tolerance in current version.

 SIMSCI                       R                                        PAGE I-1
 PROJECT                PRO/II PROCESS ENGINEERING  10.2 (64 bit)             
 PROBLEM                                 OUTPUT                                
                                         INDEX                         07/29/19
 ==============================================================================
 
  PAGE    CONTENTS
 ------  ----------------------------------------------------------------
     1   COMPONENT DATA
     2   CALCULATION SEQUENCE AND RECYCLES
     2     SEQUENCE MAP
     3   PLANT MATERIAL BALANCE
         PUMP SUMMARY
     4     UNIT 3, 'P1'
         HEAT EXCHANGER SUMMARY
     5     UNIT 4, 'E1'
         COLUMN SUMMARY
     6     UNIT 2, 'T1'
     7       TRAY LOADING
    10       TRAY COMPOSITIONS
    13       TRAY RATES AND DENSITIES
    16       TRAY TRANSPORT PROPERTIES
    17       TRAY ENTHALPIES
    18     UNIT 10, 'T2'
    20       TRAY LOADING
    23       TRAY COMPOSITIONS
    26   STREAM MOLAR COMPONENT RATES
    27   STREAM SUMMARY

 SIMSCI                       R                                        PAGE P-1
 PROJECT                PRO/II PROCESS ENGINEERING  10.2 (64 bit)             
 PROBLEM                                 OUTPUT                                
                                     COMPONENT DATA                    07/29/19
 ================ ** WARNING - PROBLEM SOLUTION NOT REACHED ** ================
 
         COMPONENT         COMP. TYPE      PHASE     MOL. WEIGHT    DENSITY
                                                                     KG/M3
   ---------------------   -----------  -----------  -----------  -----------
     1  H2O                    LIBRARY  VAP/LIQ/SOL       18.015      999.014
     2  MEA                    LIBRARY  VAP/LIQ/SOL       61.084     1019.393
     3  CO2                    LIBRARY  VAP/LIQ/SOL       44.010      816.427
     4  N2                     LIBRARY  VAP/LIQ/SOL       28.013      807.960
     5  O2                     LIBRARY  VAP/LIQ/SOL       31.999     1141.912
 
         COMPONENT             NBP      CRIT. TEMP.  CRIT. PRES.  CRIT. VOLM.
                                C            C           ATM       M3/KG-MOL
   ---------------------   -----------  -----------  -----------  -----------
     1  H2O                    100.000      373.980      217.666       0.0559
     2  MEA                    170.000      405.050       70.308       0.2250
     3  CO2                    -78.480       31.060       72.865       0.0940
     4  N2                    -195.806     -146.950       33.555       0.0892
     5  O2                    -182.962     -118.570       49.771       0.0734
 
         COMPONENT         ACEN. FACT.  HEAT FORM.     G FORM.
                                         KJ/KG-MOL    KJ/KG-MOL
   ---------------------   -----------  -----------  -----------
     1  H2O                    0.34486   -241814.00   -228590.00
     2  MEA                    0.44674   -206700.00   -103300.00
     3  CO2                    0.22362   -393510.00   -394370.00
     4  N2                     0.03772         0.00         0.00
     5  O2                     0.02218         0.00         0.00
 
         COMPONENT         DATABANK(S) USED             CAS NUMBER
   ---------------------   ---------------------      ---------------------
     1  H2O                SIMSCI                        7732-18-5
     2  MEA                SIMSCI                          MISSING
     3  CO2                SIMSCI                        124-38-9
     4  N2                 SIMSCI                        7727-37-9
     5  O2                 SIMSCI                        7782-44-7

 SIMSCI                       R                                        PAGE P-2
 PROJECT                PRO/II PROCESS ENGINEERING  10.2 (64 bit)             
 PROBLEM                                 OUTPUT                                
                           CALCULATION SEQUENCE AND RECYCLES           07/29/19
 ================ ** WARNING - PROBLEM SOLUTION NOT REACHED ** ================
 
 CALCULATION SEQUENCE
 
  SEQ    UNIT ID     UNIT TYPE     SEQ    UNIT ID     UNIT TYPE
  ---  ------------  ----------    ---  ------------  ----------
    1  T1            COLUMN          3  E1            HX
    2  P1            PUMP            4  T2            COLUMN
 
 
 SEQUENCE MAP
 
   SEQ                 DESCRIPTION
  ----  -----------------------------------------
     1  COLUMN 'T1'
     2  PUMP 'P1'
     3  HX 'E1'
     4  COLUMN 'T2'

 SIMSCI                       R                                        PAGE P-3
 PROJECT                PRO/II PROCESS ENGINEERING  10.2 (64 bit)             
 PROBLEM                                 OUTPUT                                
                                 PLANT MATERIAL BALANCE                07/29/19
 ================ ** WARNING - PROBLEM SOLUTION NOT REACHED ** ================
 
 FEED STREAMS:     S1                  S2
 
 PRODUCT STREAMS:  S3                  S7                  S8
 
 
 OVERALL PLANT MOLAR BALANCE
 
                          ---------------- KG-MOL/HR ----------------  PERCENT
        COMPONENT            FEED     +REACTION  -PRODUCT  =DEVIATION    DEV
   ---------------------  ---------- ---------- ---------- ----------  -------
     1  H2O                   91.086      0.000     91.086      0.000     0.00
     2  MEA                   13.369      0.000     13.369      0.000     0.00
     3  CO2                    5.939      0.000      5.939      0.000     0.00
     4  N2                    18.218      0.000     18.218      0.000     0.00
     5  O2                     0.997      0.000      0.997      0.000     0.00
 
        TOTAL                129.610      0.000    129.610      0.000     0.00
 
 
 OVERALL PLANT MASS BALANCE
 
                          ------------------ KG/HR ------------------  PERCENT
        COMPONENT            FEED     +REACTION  -PRODUCT  =DEVIATION    DEV
   ---------------------  ---------- ---------- ---------- ----------  -------
     1  H2O                  1640.94       0.00    1640.94       0.00     0.00
     2  MEA                   816.65       0.00     816.65       0.00     0.00
     3  CO2                   261.38       0.00     261.38       0.00     0.00
     4  N2                    510.36       0.00     510.36       0.00     0.00
     5  O2                     31.90       0.00      31.90       0.00     0.00
 
        TOTAL                3261.23       0.00    3261.23       0.00     0.00

 SIMSCI                       R                                        PAGE P-4
 PROJECT                PRO/II PROCESS ENGINEERING  10.2 (64 bit)             
 PROBLEM                                 OUTPUT                                
                                      PUMP SUMMARY                     07/29/19
 ================ ** WARNING - PROBLEM SOLUTION NOT REACHED ** ================
 
                                  UNIT 3, 'P1'
 
 Feeds                                S4
 
 Products Liquid                      S5
 
 
 OPERATING CONDITIONS
 
                                    INLET       OUTLET
                              -----------  -----------
  TEMPERATURE, C                    51.59        51.62
  PRESSURE, ATM                      1.00         2.00
  MOLE FRAC VAPOR                  0.0000       0.0000
  MOLE FRAC LIQUID                 1.0000       1.0000
  MOLE FRAC MW SOLID               0.0000       0.0000
  WEIGHT FRAC MW SOLID             0.0000       0.0000
  ACT FLOW RATE, M3/HR             3.0229       3.0229
  PUMP EFFICIENCY, PERCENT                    100.0000
  HEAD, M                                      11.6192
  SHAFT WORK, KW                                0.0851
  MECHANICAL EFFICIENCY, PERCENT              100.0000
  SHAFT POWER, KW                               0.0851
  OVERALL EFFICIENCY, PERCENT                 100.0000

 SIMSCI                       R                                        PAGE P-5
 PROJECT                PRO/II PROCESS ENGINEERING  10.2 (64 bit)             
 PROBLEM                                 OUTPUT                                
                                 HEAT EXCHANGER SUMMARY                07/29/19
 ================ ** WARNING - PROBLEM SOLUTION NOT REACHED ** ================
 
                                  UNIT 4, 'E1'
 
 OPERATING CONDITIONS
 
      DUTY, M*KJ/HR                             0.486
 
 
 COLD SIDE CONDITIONS                           INLET       OUTLET
                                          -----------  -----------
      FEED                                         S5
      MIXED PRODUCT                                             S6
       VAPOR, KG-MOL/HR                                      0.270
              K*KG/HR                                    8.786E-03
          CP, KJ/KG-C                                        1.173
      LIQUID, KG-MOL/HR                       108.794      108.524
              K*KG/HR                           2.690        2.681
          CP, KJ/KG-C                           3.499        3.569
       TOTAL, KG-MOL/HR                       108.794      108.794
              K*KG/HR                           2.690        2.690
      VAPORIZATION, KG-MOL/HR                                0.270
       TEMPERATURE, C                          51.618      101.618
       PRESSURE, ATM                            2.000        2.000

 SIMSCI                       R                                        PAGE P-6
 PROJECT                PRO/II PROCESS ENGINEERING  10.2 (64 bit)             
 PROBLEM                                 OUTPUT                                
                                     COLUMN SUMMARY                    07/29/19
 ================ ** WARNING - PROBLEM SOLUTION NOT REACHED ** ================
 
                                  UNIT 2, 'T1'
 
 TOTAL NUMBER OF ITERATIONS
 
     SURE   METHOD      5
  
 ** MESSAGE **  The flowrate estimate provided for product stream "S3" was 1E4
                KG-MOL/HR, but the final converged value is 20.816 KG-MOL/HR.
                Please update the initial estimate to ensure better convergence
                of the column.
 
 
 COLUMN SUMMARY
 
                            ---------- NET FLOW RATES -----------     HEATER
   TRAY    TEMP   PRESSURE   LIQUID    VAPOR    FEED     PRODUCT      DUTIES
           DEG C    ATM                  KG-MOL/HR                   M*KJ/HR
  ------  ------- --------  -------- -------- --------- ---------  ------------
       1     39.9     0.80     106.9             107.0L     20.8V
       2     39.7     0.81     106.9     20.8
       3     39.5     0.82     106.8     20.7
       4     39.4     0.83     106.8     20.7
       5     39.2     0.84     106.8     20.7
       6     39.0     0.85     106.7     20.6
       7     38.9     0.86     106.7     20.6
       8     38.8     0.87     106.7     20.6
       9     38.6     0.88     106.7     20.6
      10     38.5     0.89     106.6     20.5
      11     38.4     0.91     106.6     20.5
      12     38.3     0.92     106.6     20.5
      13     38.2     0.93     106.6     20.5
      14     38.2     0.94     106.6     20.4
      15     38.3     0.95     106.6     20.4
      16     38.8     0.96     106.7     20.5
      17     40.1     0.97     106.9     20.5
      18     43.2     0.98     107.5     20.8
      19     49.0     0.99     108.4     21.3
      20     51.6     1.00               22.3     22.7V    108.8L
 
 
 FEED AND PRODUCT STREAMS
 
  TYPE     STREAM    PHASE   FROM  TO   LIQUID        FLOW RATES    HEAT RATES
                             TRAY TRAY   FRAC         KG-MOL/HR      M*KJ/HR
  ----- ------------ ------  ---- ----  ------       ------------  ------------
  FEED  S2           LIQUID          1  1.0000             106.95        0.1228
  FEED  S1           VAPOR          20  0.0000              22.66        0.0862
  PROD  S3           VAPOR      1                           20.82        0.0797
  PROD  S4           LIQUID    20                          108.79        0.1293
 
  OVERALL MOLE BALANCE, (FEEDS - PRODUCTS)             1.2490E-14
  OVERALL HEAT BALANCE, (H(IN) - H(OUT)  )                           2.4810E-06

 SIMSCI                       R                                        PAGE P-7
 PROJECT                PRO/II PROCESS ENGINEERING  10.2 (64 bit)             
 PROBLEM                                 OUTPUT                                
                                     COLUMN SUMMARY                    07/29/19
 ================ ** WARNING - PROBLEM SOLUTION NOT REACHED ** ================
 
                              UNIT 2, 'T1'  (Cont)
 
 TRAY LOADING REPORT
  
 ** MESSAGE **  The liquid enthalpy of CO2 at temperature 313.25 K is outside
                the acceptable range of 220 K through 290 K.
  
 
         --------------------------  Vapor to Tray   --------------------------
                                                           Density    Viscosity
           Temp      Pressure                   Rate       at Cond     at Cond
   Tray    deg C       ATM       Molec Wt      KG/HR       KG/M3        PAS
  -----  --------  -----------  ----------  -----------  ----------  ----------
     1      39.71      0.81053     27.4637   570.647590    0.867052   0.0000180
     2      39.53      0.82105     27.4806   569.960644    0.879353   0.0000180
     3      39.36      0.83158     27.4966   569.310464    0.891629   0.0000180
     4      39.19      0.84211     27.5119   568.693901    0.903882   0.0000181
     5      39.04      0.85263     27.5264   568.108212    0.916114   0.0000181
     6      38.89      0.86316     27.5403   567.551031    0.928326   0.0000181
     7      38.75      0.87368     27.5536   567.020390    0.940519   0.0000181
     8      38.62      0.88421     27.5662   566.514837    0.952693   0.0000181
     9      38.49      0.89474     27.5783   566.033790    0.964846   0.0000181
    10      38.37      0.90526     27.5898   565.578445    0.976968   0.0000181
    11      38.27      0.91579     27.6005   565.154111    0.989038   0.0000181
    12      38.19      0.92632     27.6101   564.776178    1.000997   0.0000181
    13      38.17      0.93684     27.6176   564.485507    1.012696   0.0000181
    14      38.30      0.94737     27.6201   564.388280    1.023744   0.0000181
    15      38.79      0.95789     27.6109   564.758574    1.033158   0.0000181
    16      40.13      0.96842     27.5728   566.292857    1.038614   0.0000181
    17      43.24      0.97895     27.4662   570.662588    1.035594   0.0000182
    18      48.99      0.98947     27.2351   581.369764    1.019464   0.0000183
    19      51.59      1.00000     27.5799   614.702378    1.035153   0.0000182
    20      59.20      1.00000     29.9263   677.994240    1.097276   0.0000188
 
         -------------------------  Liquid from tray  ------------------------
                                              Density    Viscosity    Surface
           Temp                   Rate        at Cond     at Cond     Tension
   Tray    deg C    Molec Wt     K*KG/HR      KG/M3        PAS         N/M
  -----  --------  ----------  -----------  ----------  ----------  ----------
     1      39.90     24.1550    2.5825760   936.91341   0.0011012   0.0649379
     2      39.71     24.1571    2.5818889   936.98563   0.0011063   0.0649706
     3      39.53     24.1591    2.5812385   937.05390   0.0011113   0.0650016
     4      39.36     24.1610    2.5806218   937.11858   0.0011160   0.0650310
     5      39.19     24.1628    2.5800360   937.17995   0.0011205   0.0650589
     6      39.04     24.1645    2.5794788   937.23828   0.0011248   0.0650856
     7      38.89     24.1661    2.5789481   937.29377   0.0011289   0.0651109
     8      38.75     24.1677    2.5784425   937.34656   0.0011329   0.0651352
     9      38.62     24.1692    2.5779614   937.39671   0.0011367   0.0651582
    10      38.49     24.1706    2.5775060   937.44403   0.0011403   0.0651800
    11      38.37     24.1719    2.5770816   937.48787   0.0011436   0.0652002
    12      38.27     24.1730    2.5767036   937.52631   0.0011466   0.0652181
    13      38.19     24.1739    2.5764128   937.55437   0.0011488   0.0652313
    14      38.17     24.1743    2.5763154   937.55917   0.0011493   0.0652341
    15      38.30     24.1732    2.5766856   937.50755   0.0011457   0.0652118

 SIMSCI                       R                                        PAGE P-8
 PROJECT                PRO/II PROCESS ENGINEERING  10.2 (64 bit)             
 PROBLEM                                 OUTPUT                                
                                     COLUMN SUMMARY                    07/29/19
 ================ ** WARNING - PROBLEM SOLUTION NOT REACHED ** ================
 
                              UNIT 2, 'T1'  (Cont)
 
         -------------------------  Liquid from tray  ------------------------
                                              Density    Viscosity    Surface
           Temp                   Rate        at Cond     at Cond     Tension
   Tray    deg C    Molec Wt     K*KG/HR      KG/M3        PAS         N/M
  -----  --------  ----------  -----------  ----------  ----------  ----------
    16      38.79     24.1685    2.5782200   937.31593   0.0011319   0.0651273
    17      40.13     24.1554    2.5825903   936.78550   0.0010952   0.0648955
    18      43.24     24.1271    2.5932986   935.34135   0.0010159   0.0643513
    19      48.99     24.2249    2.6266311   922.95972   0.0008819   0.0629635
    20      51.59     24.7249    2.6899231   889.84770   0.0008069   0.0611637
 
         -------------------------  Vapor from Tray  --------------------------
                                                           Density    Viscosity
           Temp      Pressure                   Rate       at Cond     at Cond
   Tray    deg C       ATM       Molec Wt      KG/HR       KG/M3        PAS
  -----  --------  -----------  ----------  -----------  ----------  ----------
     1      39.90      0.80000     27.4460   571.305363    0.854723   0.0000180
     2      39.71      0.81053     27.4637   570.647590    0.867052   0.0000180
     3      39.53      0.82105     27.4806   569.960644    0.879353   0.0000180
     4      39.36      0.83158     27.4966   569.310464    0.891629   0.0000180
     5      39.19      0.84211     27.5119   568.693901    0.903882   0.0000181
     6      39.04      0.85263     27.5264   568.108212    0.916114   0.0000181
     7      38.89      0.86316     27.5403   567.551031    0.928326   0.0000181
     8      38.75      0.87368     27.5536   567.020390    0.940519   0.0000181
     9      38.62      0.88421     27.5662   566.514837    0.952693   0.0000181
    10      38.49      0.89474     27.5783   566.033790    0.964846   0.0000181
    11      38.37      0.90526     27.5898   565.578445    0.976968   0.0000181
    12      38.27      0.91579     27.6005   565.154111    0.989038   0.0000181
    13      38.19      0.92632     27.6101   564.776178    1.000997   0.0000181
    14      38.17      0.93684     27.6176   564.485507    1.012696   0.0000181
    15      38.30      0.94737     27.6201   564.388280    1.023744   0.0000181
    16      38.79      0.95789     27.6109   564.758574    1.033158   0.0000181
    17      40.13      0.96842     27.5728   566.292857    1.038614   0.0000181
    18      43.24      0.97895     27.4662   570.662588    1.035594   0.0000182
    19      48.99      0.98947     27.2351   581.369764    1.019464   0.0000183
    20      51.59      1.00000     27.5799   614.702378    1.035153   0.0000182
 
         -------------------------   Liquid to Tray   ------------------------
                                              Density    Viscosity    Surface
           Temp                   Rate        at Cond     at Cond     Tension
   Tray    deg C    Molec Wt     K*KG/HR      KG/M3        PAS         N/M
  -----  --------  ----------  -----------  ----------  ----------  ----------
     1      40.10     24.1527    2.5832341   936.88188   0.0010958   0.0649048
     2      39.90     24.1550    2.5825760   936.91341   0.0011012   0.0649379
     3      39.71     24.1571    2.5818889   936.98563   0.0011063   0.0649706
     4      39.53     24.1591    2.5812385   937.05390   0.0011113   0.0650016
     5      39.36     24.1610    2.5806218   937.11858   0.0011160   0.0650310
     6      39.19     24.1628    2.5800360   937.17995   0.0011205   0.0650589
     7      39.04     24.1645    2.5794788   937.23828   0.0011248   0.0650856
     8      38.89     24.1661    2.5789481   937.29377   0.0011289   0.0651109
     9      38.75     24.1677    2.5784425   937.34656   0.0011329   0.0651352
    10      38.62     24.1692    2.5779614   937.39671   0.0011367   0.0651582

 SIMSCI                       R                                        PAGE P-9
 PROJECT                PRO/II PROCESS ENGINEERING  10.2 (64 bit)             
 PROBLEM                                 OUTPUT                                
                                     COLUMN SUMMARY                    07/29/19
 ================ ** WARNING - PROBLEM SOLUTION NOT REACHED ** ================
 
                              UNIT 2, 'T1'  (Cont)
 
         -------------------------   Liquid to Tray   ------------------------
                                              Density    Viscosity    Surface
           Temp                   Rate        at Cond     at Cond     Tension
   Tray    deg C    Molec Wt     K*KG/HR      KG/M3        PAS         N/M
  -----  --------  ----------  -----------  ----------  ----------  ----------
    11      38.49     24.1706    2.5775060   937.44403   0.0011403   0.0651800
    12      38.37     24.1719    2.5770816   937.48787   0.0011436   0.0652002
    13      38.27     24.1730    2.5767036   937.52631   0.0011466   0.0652181
    14      38.19     24.1739    2.5764128   937.55437   0.0011488   0.0652313
    15      38.17     24.1743    2.5763154   937.55917   0.0011493   0.0652341
    16      38.30     24.1732    2.5766856   937.50755   0.0011457   0.0652118
    17      38.79     24.1685    2.5782200   937.31593   0.0011319   0.0651273
    18      40.13     24.1554    2.5825903   936.78550   0.0010952   0.0648955
    19      43.24     24.1271    2.5932986   935.34135   0.0010159   0.0643513
    20      48.99     24.2249    2.6266311   922.95972   0.0008819   0.0629635

 SIMSCI                       R                                       PAGE P-10
 PROJECT                PRO/II PROCESS ENGINEERING  10.2 (64 bit)             
 PROBLEM                                 OUTPUT                                
                                     COLUMN SUMMARY                    07/29/19
 ================ ** WARNING - PROBLEM SOLUTION NOT REACHED ** ================
 
                              UNIT 2, 'T1'  (Cont)
 
 TRAY MOLAR COMPOSITIONS
 
                               TRAY 1                      TRAY 2
     COMPONENT              X          Y                X          Y
                       ----------  ----------      ----------  ----------
    1 H2O                 0.84593     0.07667         0.84587     0.07490
    2 MEA                 0.12504  1.3535E-04         0.12509  1.3173E-04
    3 CO2                 0.02901  2.3457E-04         0.02902  2.2703E-04
    4 N2               1.9586E-05     0.87509      1.9887E-05     0.87676
    5 O2               2.4579E-06     0.04787      2.4998E-06     0.04797
 
  RATE, KG-MOL/HR          106.92       20.82          106.88       20.78
 
 
                               TRAY 3                      TRAY 4
     COMPONENT              X          Y                X          Y
                       ----------  ----------      ----------  ----------
    1 H2O                 0.84582     0.07323         0.84578     0.07164
    2 MEA                 0.12513  1.2832E-04         0.12517  1.2510E-04
    3 CO2                 0.02903  2.1999E-04         0.02903  2.1340E-04
    4 N2               2.0187E-05     0.87835      2.0487E-05     0.87987
    5 O2               2.5411E-06     0.04806      2.5823E-06     0.04814
 
  RATE, KG-MOL/HR          106.84       20.74          106.81       20.70
 
 
                               TRAY 5                      TRAY 6
     COMPONENT              X          Y                X          Y
                       ----------  ----------      ----------  ----------
    1 H2O                 0.84573     0.07012         0.84569     0.06868
    2 MEA                 0.12520  1.2205E-04         0.12524  1.1917E-04
    3 CO2                 0.02904  2.0722E-04         0.02905  2.0141E-04
    4 N2               2.0785E-05     0.88131      2.1082E-05     0.88269
    5 O2               2.6233E-06     0.04822      2.6642E-06     0.04830
 
  RATE, KG-MOL/HR          106.78       20.67          106.75       20.64
 
 
                               TRAY 7                      TRAY 8
     COMPONENT              X          Y                X          Y
                       ----------  ----------      ----------  ----------
    1 H2O                 0.84565     0.06730         0.84561     0.06599
    2 MEA                 0.12527  1.1643E-04         0.12530  1.1382E-04
    3 CO2                 0.02906  1.9594E-04         0.02906  1.9078E-04
    4 N2               2.1379E-05     0.88400      2.1675E-05     0.88525
    5 O2               2.7049E-06     0.04837      2.7454E-06     0.04844
 
  RATE, KG-MOL/HR          106.72       20.61          106.69       20.58

 SIMSCI                       R                                       PAGE P-11
 PROJECT                PRO/II PROCESS ENGINEERING  10.2 (64 bit)             
 PROBLEM                                 OUTPUT                                
                                     COLUMN SUMMARY                    07/29/19
 ================ ** WARNING - PROBLEM SOLUTION NOT REACHED ** ================
 
                              UNIT 2, 'T1'  (Cont)
 
                               TRAY 9                     TRAY 10
     COMPONENT              X          Y                X          Y
                       ----------  ----------      ----------  ----------
    1 H2O                 0.84557     0.06473         0.84554     0.06353
    2 MEA                 0.12534  1.1135E-04         0.12536  1.0900E-04
    3 CO2                 0.02907  1.8592E-04         0.02907  1.8134E-04
    4 N2               2.1970E-05     0.88645      2.2264E-05     0.88759
    5 O2               2.7859E-06     0.04850      2.8261E-06     0.04856
 
  RATE, KG-MOL/HR          106.66       20.55          106.64       20.52
 
 
                              TRAY 11                     TRAY 12
     COMPONENT              X          Y                X          Y
                       ----------  ----------      ----------  ----------
    1 H2O                 0.84550     0.06239         0.84547     0.06133
    2 MEA                 0.12539  1.0679E-04         0.12542  1.0475E-04
    3 CO2                 0.02908  1.7706E-04         0.02908  1.7315E-04
    4 N2               2.2558E-05     0.88868      2.2850E-05     0.88969
    5 O2               2.8661E-06     0.04862      2.9056E-06     0.04868
 
  RATE, KG-MOL/HR          106.61       20.50          106.59       20.48
 
 
                              TRAY 13                     TRAY 14
     COMPONENT              X          Y                X          Y
                       ----------  ----------      ----------  ----------
    1 H2O                 0.84545     0.06038         0.84544     0.05964
    2 MEA                 0.12543  1.0296E-04         0.12544  1.0168E-04
    3 CO2                 0.02909  1.6982E-04         0.02909  1.6762E-04
    4 N2               2.3138E-05     0.89060      2.3420E-05     0.89130
    5 O2               2.9442E-06     0.04873      2.9805E-06     0.04877
 
  RATE, KG-MOL/HR          106.58       20.46          106.57       20.44
 
 
                              TRAY 15                     TRAY 16
     COMPONENT              X          Y                X          Y
                       ----------  ----------      ----------  ----------
    1 H2O                 0.84547     0.05939         0.84558     0.06031
    2 MEA                 0.12542  1.0152E-04         0.12532  1.0413E-04
    3 CO2                 0.02909  1.6798E-04         0.02907  1.7475E-04
    4 N2               2.3685E-05     0.89153      2.3908E-05     0.89065
    5 O2               3.0111E-06     0.04878      3.0275E-06     0.04873
 
  RATE, KG-MOL/HR          106.59       20.43          106.68       20.45

 SIMSCI                       R                                       PAGE P-12
 PROJECT                PRO/II PROCESS ENGINEERING  10.2 (64 bit)             
 PROBLEM                                 OUTPUT                                
                                     COLUMN SUMMARY                    07/29/19
 ================ ** WARNING - PROBLEM SOLUTION NOT REACHED ** ================
 
                              UNIT 2, 'T1'  (Cont)
 
                              TRAY 17                     TRAY 18
     COMPONENT              X          Y                X          Y
                       ----------  ----------      ----------  ----------
    1 H2O                 0.84591     0.06411         0.84657     0.07476
    2 MEA                 0.12505  1.1374E-04         0.12439  1.4060E-04
    3 CO2                 0.02902  1.9861E-04         0.02901  2.7462E-04
    4 N2               2.4028E-05     0.88702      2.3928E-05     0.87684
    5 O2               3.0105E-06     0.04853      2.9278E-06     0.04798
 
  RATE, KG-MOL/HR          106.92       20.54          107.49       20.78
 
 
                              TRAY 19                     TRAY 20
     COMPONENT              X          Y                X          Y
                       ----------  ----------      ----------  ----------
    1 H2O                 0.84208     0.09866         0.82256     0.10843
    2 MEA                 0.12329  1.7291E-04         0.12286  6.5783E-05
    3 CO2                 0.03460     0.00101         0.05455     0.02939
    4 N2               2.4274E-05     0.85345      2.6625E-05     0.81740
    5 O2               2.8467E-06     0.04670      3.0465E-06     0.04472
 
  RATE, KG-MOL/HR          108.43       21.35          108.79       22.29

 SIMSCI                       R                                       PAGE P-13
 PROJECT                PRO/II PROCESS ENGINEERING  10.2 (64 bit)             
 PROBLEM                                 OUTPUT                                
                                     COLUMN SUMMARY                    07/29/19
 ================ ** WARNING - PROBLEM SOLUTION NOT REACHED ** ================
 
                              UNIT 2, 'T1'  (Cont)
 
 TRAY NET VAPOR RATES AND DENSITIES
 
                                          --------------- RATES ---------------
  TRAY     MW     ACTUAL DENS   Z FROM                   NORMAL       ACTUAL
                     KG/M3      DENSITY     K*KG/HR      K*M3/HR      K*M3/HR
  ----  --------  ------------  --------  -----------  -----------  -----------
     1    27.446       0.85472   1.00003        0.571        0.467        0.668
     2    27.464       0.86705   1.00004        0.571        0.466        0.658
     3    27.481       0.87935   1.00004        0.570        0.465        0.648
     4    27.497       0.89163   1.00005        0.569        0.464        0.639
     5    27.512       0.90388   1.00005        0.569        0.463        0.629
     6    27.526       0.91611   1.00006        0.568        0.463        0.620
     7    27.540       0.92833   1.00007        0.568        0.462        0.611
     8    27.554       0.94052   1.00007        0.567        0.461        0.603
     9    27.566       0.95269   1.00008        0.567        0.461        0.595
    10    27.578       0.96485   1.00008        0.566        0.460        0.587
    11    27.590       0.97697   1.00009        0.566        0.459        0.579
    12    27.601       0.98904   1.00009        0.565        0.459        0.571
    13    27.610       1.00100   1.00010        0.565        0.458        0.564
    14    27.618       1.01270   1.00010        0.564        0.458        0.557
    15    27.620       1.02374   1.00010        0.564        0.458        0.551
    16    27.611       1.03316   1.00010        0.565        0.458        0.547
    17    27.573       1.03861   1.00010        0.566        0.460        0.545
    18    27.466       1.03559   1.00007        0.571        0.466        0.551
    19    27.235       1.01946   0.99999        0.581        0.478        0.570
    20    27.580       1.03515   0.99986        0.615        0.500        0.594

 SIMSCI                       R                                       PAGE P-14
 PROJECT                PRO/II PROCESS ENGINEERING  10.2 (64 bit)             
 PROBLEM                                 OUTPUT                                
                                     COLUMN SUMMARY                    07/29/19
 ================ ** WARNING - PROBLEM SOLUTION NOT REACHED ** ================
 
                              UNIT 2, 'T1'  (Cont)
 
 TRAY NET LIQUID RATES AND DENSITIES
 
                                          --------------- RATES ---------------
  TRAY     MW     ACTUAL DENS   Z FROM                   STD LIQ      ACTUAL
                     KG/M3      DENSITY     K*KG/HR       M3/HR        M3/HR
  ----  --------  ------------  --------  -----------  -----------  -----------
     1    24.155       936.913  8.03E-04        2.583        2.599        2.756
     2    24.157       936.986  8.14E-04        2.582        2.599        2.756
     3    24.159       937.054  8.25E-04        2.581        2.598        2.755
     4    24.161       937.119  8.36E-04        2.581        2.597        2.754
     5    24.163       937.180  8.47E-04        2.580        2.597        2.753
     6    24.164       937.238  8.58E-04        2.579        2.596        2.752
     7    24.166       937.294  8.69E-04        2.579        2.596        2.751
     8    24.168       937.347  8.80E-04        2.578        2.595        2.751
     9    24.169       937.397  8.91E-04        2.578        2.595        2.750
    10    24.171       937.444  9.02E-04        2.578        2.594        2.750
    11    24.172       937.488  9.13E-04        2.577        2.594        2.749
    12    24.173       937.526  9.24E-04        2.577        2.593        2.748
    13    24.174       937.554  9.35E-04        2.576        2.593        2.748
    14    24.174       937.559  9.46E-04        2.576        2.593        2.748
    15    24.173       937.508  9.56E-04        2.577        2.593        2.748
    16    24.169       937.316  9.65E-04        2.578        2.595        2.751
    17    24.155       936.786  9.71E-04        2.583        2.599        2.757
    18    24.127       935.341  9.73E-04        2.593        2.610        2.773
    19    24.225       922.960  9.82E-04        2.627        2.650        2.846
    20    24.725       889.848   0.00104        2.690        2.735        3.023

 SIMSCI                       R                                       PAGE P-15
 PROJECT                PRO/II PROCESS ENGINEERING  10.2 (64 bit)             
 PROBLEM                                 OUTPUT                                
                                     COLUMN SUMMARY                    07/29/19
 ================ ** WARNING - PROBLEM SOLUTION NOT REACHED ** ================
 
                              UNIT 2, 'T1'  (Cont)
 
 TRAY STANDARD LIQUID DENSITIES
 
  TRAY  ------ DENSITY -------  -------- API ---------  -------- SPGR --------
               KG/M3                                          WATER 60F
          LIQUID       VAPOR      LIQUID       VAPOR      LIQUID       VAPOR
  ----  ----------  ----------  ----------  ----------  ----------  ----------
     1     993.546     829.539      10.779      38.908      0.9945      0.8304
     2     993.545     829.364      10.779      38.945      0.9945      0.8302
     3     993.544     829.195      10.779      38.979      0.9945      0.8300
     4     993.543     829.036      10.779      39.012      0.9945      0.8299
     5     993.542     828.884      10.779      39.043      0.9945      0.8297
     6     993.541     828.740      10.779      39.073      0.9945      0.8296
     7     993.541     828.602      10.780      39.101      0.9945      0.8294
     8     993.540     828.471      10.780      39.128      0.9945      0.8293
     9     993.539     828.346      10.780      39.154      0.9945      0.8292
    10     993.538     828.226      10.780      39.179      0.9945      0.8290
    11     993.538     828.113      10.780      39.202      0.9945      0.8289
    12     993.537     828.008      10.780      39.224      0.9945      0.8288
    13     993.537     827.913      10.780      39.243      0.9945      0.8287
    14     993.536     827.841      10.780      39.258      0.9945      0.8287
    15     993.536     827.816      10.780      39.263      0.9945      0.8286
    16     993.538     827.907      10.780      39.244      0.9945      0.8287
    17     993.541     828.285      10.779      39.166      0.9945      0.8291
    18     993.504     829.352      10.785      38.947      0.9945      0.8302
    19     991.233     831.769      11.111      38.452      0.9922      0.8326
    20     983.618     832.294      12.215      38.344      0.9846      0.8331

 SIMSCI                       R                                       PAGE P-16
 PROJECT                PRO/II PROCESS ENGINEERING  10.2 (64 bit)             
 PROBLEM                                 OUTPUT                                
                                     COLUMN SUMMARY                    07/29/19
 ================ ** WARNING - PROBLEM SOLUTION NOT REACHED ** ================
 
                              UNIT 2, 'T1'  (Cont)
 
 TRAY TRANSPORT PROPERTIES
 
  TRAY  - THERMAL CONDUCTIVITY -  ------ VISCOSITY -------  -- SURFACE --
                 W/M-K                      PAS                TENSION
          LIQUID        VAPOR       LIQUID        VAPOR          N/M
  ----  -----------  -----------  -----------  -----------  -------------
     1   2.4652E-01   2.6137E-02   1.1012E-03   1.8038E-05     6.4938E-02
     2   2.4648E-01   2.6134E-02   1.1063E-03   1.8041E-05     6.4971E-02
     3   2.4644E-01   2.6131E-02   1.1113E-03   1.8045E-05     6.5002E-02
     4   2.4640E-01   2.6129E-02   1.1160E-03   1.8048E-05     6.5031E-02
     5   2.4636E-01   2.6126E-02   1.1205E-03   1.8051E-05     6.5059E-02
     6   2.4633E-01   2.6124E-02   1.1248E-03   1.8054E-05     6.5086E-02
     7   2.4629E-01   2.6122E-02   1.1289E-03   1.8057E-05     6.5111E-02
     8   2.4626E-01   2.6120E-02   1.1329E-03   1.8059E-05     6.5135E-02
     9   2.4623E-01   2.6118E-02   1.1367E-03   1.8062E-05     6.5158E-02
    10   2.4620E-01   2.6116E-02   1.1403E-03   1.8065E-05     6.5180E-02
    11   2.4617E-01   2.6115E-02   1.1436E-03   1.8067E-05     6.5200E-02
    12   2.4615E-01   2.6114E-02   1.1466E-03   1.8070E-05     6.5218E-02
    13   2.4613E-01   2.6114E-02   1.1488E-03   1.8073E-05     6.5231E-02
    14   2.4612E-01   2.6118E-02   1.1493E-03   1.8077E-05     6.5234E-02
    15   2.4615E-01   2.6128E-02   1.1457E-03   1.8084E-05     6.5212E-02
    16   2.4624E-01   2.6157E-02   1.1319E-03   1.8100E-05     6.5127E-02
    17   2.4651E-01   2.6229E-02   1.0952E-03   1.8134E-05     6.4895E-02
    18   2.4687E-01   2.6384E-02   1.0159E-03   1.8198E-05     6.4351E-02
    19   2.3563E-01   2.6639E-02   8.8191E-04   1.8284E-05     6.2963E-02
    20   2.0488E-01   2.6473E-02   8.0693E-04   1.8234E-05     6.1164E-02

 SIMSCI                       R                                       PAGE P-17
 PROJECT                PRO/II PROCESS ENGINEERING  10.2 (64 bit)             
 PROBLEM                                 OUTPUT                                
                                     COLUMN SUMMARY                    07/29/19
 ================ ** WARNING - PROBLEM SOLUTION NOT REACHED ** ================
 
                              UNIT 2, 'T1'  (Cont)
 
 TRAY ENTHALPIES
 
  TRAY         M*KJ/HR               K*KJ/KG-MOL                KJ/KG
          LIQUID       VAPOR      LIQUID       VAPOR      LIQUID       VAPOR
  ----  ----------  ----------  ----------  ----------  ----------  ----------
     1       0.121   7.969E-02       1.130       3.828      46.787     139.490
     2       0.119   7.772E-02       1.113       3.741      46.078     136.202
     3       0.117   7.585E-02       1.097       3.657      45.406     133.087
     4       0.116   7.409E-02       1.082       3.578      44.768     130.132
     5       0.114   7.241E-02       1.067       3.503      44.162     127.322
     6       0.112   7.081E-02       1.053       3.431      43.584     124.648
     7       0.111   6.930E-02       1.040       3.363      43.034     122.097
     8       0.110   6.785E-02       1.027       3.297      42.509     119.664
     9       0.108   6.648E-02       1.015       3.235      42.009     117.341
    10       0.107   6.517E-02       1.004       3.175      41.537     115.127
    11       0.106   6.393E-02       0.993       3.118      41.098     113.031
    12       0.105   6.278E-02       0.984       3.066      40.710     111.080
    13       0.104   6.176E-02       0.977       3.019      40.422     109.355
    14       0.104   6.100E-02       0.976       2.985      40.356     108.069
    15       0.105   6.083E-02       0.987       2.977      40.828     107.772
    16       0.110   6.205E-02       1.030       3.034      42.628     109.875
    17       0.123   6.676E-02       1.149       3.250      47.584     117.884
    18       0.153   7.975E-02       1.420       3.838      58.846     139.749
    19       0.178       0.109       1.640       5.129      67.696     188.320
    20       0.129       0.135       1.189       6.044      48.074     219.160

 SIMSCI                       R                                       PAGE P-18
 PROJECT                PRO/II PROCESS ENGINEERING  10.2 (64 bit)             
 PROBLEM                                 OUTPUT                                
                                     COLUMN SUMMARY                    07/29/19
 ================ ** WARNING - PROBLEM SOLUTION NOT REACHED ** ================
 
                                 UNIT 10, 'T2'
 
 TOTAL NUMBER OF ITERATIONS
 
     IN/OUT METHOD      2
 
 
 COLUMN SUMMARY
 
                            ---------- NET FLOW RATES -----------     HEATER
   TRAY    TEMP   PRESSURE   LIQUID    VAPOR    FEED     PRODUCT      DUTIES
           DEG C    ATM                  KG-MOL/HR                   M*KJ/HR
  ------  ------- --------  -------- -------- --------- ---------  ------------
       1C    99.4     1.00  9.87E+06               2.1V     88.4V  -405101.9895
       2    100.0     1.00  1.12E+07 9.87E+06    106.7L
       3    100.0     1.00  1.04E+07 1.12E+07
       4    100.0     1.00  9.86E+06 1.04E+07
       5    100.0     1.00  9.54E+06 9.86E+06
       6    100.0     1.00  9.26E+06 9.54E+06
       7    100.0     1.00  9.12E+06 9.26E+06
       8    100.0     1.00  9.00E+06 9.12E+06
       9    100.0     1.00  8.87E+06 9.00E+06
      10    100.0     1.00  8.72E+06 8.87E+06
      11    100.0     1.00  8.57E+06 8.72E+06
      12    100.0     1.00  8.41E+06 8.57E+06
      13    100.0     1.00  8.26E+06 8.41E+06
      14    100.0     1.00  8.06E+06 8.26E+06
      15    100.0     1.00  7.85E+06 8.06E+06
      16    100.0     1.00  7.62E+06 7.85E+06
      17    100.0     1.00  7.26E+06 7.62E+06
      18    100.3     1.00  6.18E+06 7.26E+06
      19    103.9     1.00  3.98E+06 6.18E+06
      20R   128.2     1.00           3.98E+06               20.4L   165957.6349
 
 
 FEED AND PRODUCT STREAMS
 
  TYPE     STREAM    PHASE   FROM  TO   LIQUID        FLOW RATES    HEAT RATES
                             TRAY TRAY   FRAC         KG-MOL/HR      M*KJ/HR
  ----- ------------ ------  ---- ----  ------       ------------  ------------
  FEED  S6           MIXED           2  0.9808             108.79        0.6155
  PROD  S7           VAPOR      1                           88.36        4.1004
  PROD  S8           LIQUID    20                           20.43        0.3557
 
  OVERALL MOLE BALANCE, (FEEDS - PRODUCTS)             7.4387E-09
  OVERALL HEAT BALANCE, (H(IN) - H(OUT)  )                         -239148.1952

 SIMSCI                       R                                       PAGE P-19
 PROJECT                PRO/II PROCESS ENGINEERING  10.2 (64 bit)             
 PROBLEM                                 OUTPUT                                
                                     COLUMN SUMMARY                    07/29/19
 ================ ** WARNING - PROBLEM SOLUTION NOT REACHED ** ================
 
                             UNIT 10, 'T2'  (Cont)
 
 SPECIFICATIONS
 
  SPECIFICATION  PARAMETER  TRAY   COMP   SPECIFICATION  SPECIFIED   CALCULATED
     NUMBER        TYPE      NO     NO        TYPE         VALUE       VALUE
  -------------  ---------  ----  ------  -------------  ----------  ----------
    1 (ACTIVE)   STRM S7       1          MOL RATE        4.000E+01   8.836E+01
    2 (ACTIVE)   STRM S8      20          TEMPERATURE     1.050E+02   1.282E+02
 
 
 REFLUX RATIOS
 
                                     -------- REFLUX RATIOS --------
                                       MOLAR      WEIGHT   STD L VOL
                                     ---------  ---------  ---------
  REFLUX / FEED STREAM S6            9.071E+04  6.610E+04  6.508E+04
  REFLUX / VAPOR DISTILLATE          1.117E+05  1.018E+05  9.853E+04

 SIMSCI                       R                                       PAGE P-20
 PROJECT                PRO/II PROCESS ENGINEERING  10.2 (64 bit)             
 PROBLEM                                 OUTPUT                                
                                     COLUMN SUMMARY                    07/29/19
 ================ ** WARNING - PROBLEM SOLUTION NOT REACHED ** ================
 
                             UNIT 10, 'T2'  (Cont)
 
 TRAY LOADING REPORT
  
 ** MESSAGE **  The liquid enthalpy of N2 at temperature 373.17 K is outside
                the acceptable range of 63.15 K through 112 K.
 ** MESSAGE **  The liquid enthalpy of O2 at temperature 373.17 K is outside
                the acceptable range of 54.36 K through 142 K.
  
 
         --------------------------  Vapor to Tray   --------------------------
                                                           Density    Viscosity
           Temp      Pressure                   Rate       at Cond     at Cond
   Tray    deg C       ATM       Molec Wt     M*KG/HR      KG/M3        PAS
  -----  --------  -----------  ----------  -----------  ----------  ----------
     1     100.02      1.00000     18.0157   177.800892   0.5933000   0.0000125
     2     100.02      1.00000     18.0153   202.253109   0.5932885   0.0000125
     3     100.02      1.00000     18.0153   187.486527   0.5932899   0.0000125
     4     100.02      1.00000     18.0153   177.610465   0.5932900   0.0000125
     5     100.02      1.00000     18.0153   171.938525   0.5932902   0.0000125
     6     100.02      1.00000     18.0153   166.748096   0.5932903   0.0000125
     7     100.02      1.00000     18.0153   164.224985   0.5932884   0.0000125
     8     100.02      1.00000     18.0153   162.185136   0.5932898   0.0000125
     9     100.02      1.00000     18.0153   159.788010   0.5932899   0.0000125
    10     100.02      1.00000     18.0153   157.139385   0.5932899   0.0000125
    11     100.02      1.00000     18.0153   154.340294   0.5932899   0.0000125
    12     100.02      1.00000     18.0153   151.465573   0.5932899   0.0000125
    13     100.02      1.00000     18.0153   148.731992   0.5932900   0.0000125
    14     100.02      1.00000     18.0153   145.267551   0.5932901   0.0000125
    15     100.02      1.00000     18.0154   141.491165   0.5932916   0.0000125
    16     100.04      1.00000     18.0170   137.218562   0.5933192   0.0000125
    17     100.30      1.00000     18.0443   131.018805   0.5937943   0.0000125
    18     103.94      1.00000     18.4734   114.229323   0.6020173   0.0000126
    19     128.24      1.00000     23.9633    95.302845   0.7339977   0.0000126
    20   Reboiler
 
         -------------------------  Liquid from tray  ------------------------
                                              Density    Viscosity    Surface
           Temp                   Rate        at Cond     at Cond     Tension
   Tray    deg C    Molec Wt     M*KG/HR      KG/M3        PAS         N/M
  -----  --------  ----------  -----------  ----------  ----------  ----------
     1      99.40     18.0156   177.799146   957.91190   0.0002813   0.0583284
     2     100.02     18.0153   202.254053   957.53459   0.0002794   0.0582090
     3     100.02     18.0153   187.487471   957.53328   0.0002794   0.0582086
     4     100.02     18.0153   177.611409   957.53386   0.0002794   0.0582088
     5     100.02     18.0153   171.939469   957.53391   0.0002794   0.0582088
     6     100.02     18.0153   166.749040   957.53397   0.0002794   0.0582088
     7     100.02     18.0153   164.225929   957.53400   0.0002794   0.0582088
     8     100.02     18.0153   162.186080   957.53322   0.0002794   0.0582086
     9     100.02     18.0153   159.788954   957.53380   0.0002794   0.0582087
    10     100.02     18.0153   157.140329   957.53385   0.0002794   0.0582087
    11     100.02     18.0154   154.341238   957.53385   0.0002794   0.0582087
    12     100.02     18.0154   151.466516   957.53384   0.0002794   0.0582087
    13     100.02     18.0154   148.732936   957.53385   0.0002794   0.0582087

 SIMSCI                       R                                       PAGE P-21
 PROJECT                PRO/II PROCESS ENGINEERING  10.2 (64 bit)             
 PROBLEM                                 OUTPUT                                
                                     COLUMN SUMMARY                    07/29/19
 ================ ** WARNING - PROBLEM SOLUTION NOT REACHED ** ================
 
                             UNIT 10, 'T2'  (Cont)
 
         -------------------------  Liquid from tray  ------------------------
                                              Density    Viscosity    Surface
           Temp                   Rate        at Cond     at Cond     Tension
   Tray    deg C    Molec Wt     M*KG/HR      KG/M3        PAS         N/M
  -----  --------  ----------  -----------  ----------  ----------  ----------
    14     100.02     18.0154   145.268494   957.53386   0.0002794   0.0582087
    15     100.02     18.0155   141.492109   957.53377   0.0002794   0.0582087
    16     100.02     18.0171   137.219506   957.53244   0.0002795   0.0582078
    17     100.04     18.0444   131.019749   957.51058   0.0002799   0.0581930
    18     100.30     18.4735   114.230267   957.16874   0.0002870   0.0579610
    19     103.94     23.9634    95.303789   952.89944   0.0003823   0.0549847
    20     128.24     46.1874     0.000944   929.34223   0.0007103   0.0423962
 
         -------------------------  Vapor from Tray  --------------------------
                                                           Density    Viscosity
           Temp      Pressure                   Rate       at Cond     at Cond
   Tray    deg C       ATM       Molec Wt     M*KG/HR      KG/M3        PAS
  -----  --------  -----------  ----------  -----------  ----------  ----------
     1      99.40      1.00000     19.7614     0.001746   0.6515900   0.0000131
     2     100.02      1.00000     18.0157   177.800837   0.5933041   0.0000125
     3     100.02      1.00000     18.0153   202.253109   0.5932885   0.0000125
     4     100.02      1.00000     18.0153   187.486527   0.5932899   0.0000125
     5     100.02      1.00000     18.0153   177.610465   0.5932900   0.0000125
     6     100.02      1.00000     18.0153   171.938525   0.5932902   0.0000125
     7     100.02      1.00000     18.0153   166.748096   0.5932903   0.0000125
     8     100.02      1.00000     18.0153   164.224985   0.5932884   0.0000125
     9     100.02      1.00000     18.0153   162.185136   0.5932898   0.0000125
    10     100.02      1.00000     18.0153   159.788010   0.5932899   0.0000125
    11     100.02      1.00000     18.0153   157.139385   0.5932899   0.0000125
    12     100.02      1.00000     18.0153   154.340294   0.5932899   0.0000125
    13     100.02      1.00000     18.0153   151.465573   0.5932899   0.0000125
    14     100.02      1.00000     18.0153   148.731992   0.5932900   0.0000125
    15     100.02      1.00000     18.0153   145.267551   0.5932901   0.0000125
    16     100.02      1.00000     18.0154   141.491165   0.5932916   0.0000125
    17     100.04      1.00000     18.0170   137.218562   0.5933192   0.0000125
    18     100.30      1.00000     18.0443   131.018805   0.5937943   0.0000125
    19     103.94      1.00000     18.4734   114.229323   0.6020173   0.0000126
    20     128.24      1.00000     23.9633    95.302845   0.7339977   0.0000126
 
         -------------------------   Liquid to Tray   ------------------------
                                              Density    Viscosity    Surface
           Temp                   Rate        at Cond     at Cond     Tension
   Tray    deg C    Molec Wt     M*KG/HR      KG/M3        PAS         N/M
  -----  --------  ----------  -----------  ----------  ----------  ----------
     1   Condenser
     2      99.58     18.0157   177.801780   957.78903   0.0002808   0.0582928
     3     100.02     18.0153   202.254053   957.53459   0.0002794   0.0582090
     4     100.02     18.0153   187.487471   957.53328   0.0002794   0.0582086
     5     100.02     18.0153   177.611409   957.53386   0.0002794   0.0582088
     6     100.02     18.0153   171.939469   957.53391   0.0002794   0.0582088
     7     100.02     18.0153   166.749040   957.53397   0.0002794   0.0582088
     8     100.02     18.0153   164.225929   957.53400   0.0002794   0.0582088

 SIMSCI                       R                                       PAGE P-22
 PROJECT                PRO/II PROCESS ENGINEERING  10.2 (64 bit)             
 PROBLEM                                 OUTPUT                                
                                     COLUMN SUMMARY                    07/29/19
 ================ ** WARNING - PROBLEM SOLUTION NOT REACHED ** ================
 
                             UNIT 10, 'T2'  (Cont)
 
         -------------------------   Liquid to Tray   ------------------------
                                              Density    Viscosity    Surface
           Temp                   Rate        at Cond     at Cond     Tension
   Tray    deg C    Molec Wt     M*KG/HR      KG/M3        PAS         N/M
  -----  --------  ----------  -----------  ----------  ----------  ----------
     9     100.02     18.0153   162.186080   957.53322   0.0002794   0.0582086
    10     100.02     18.0153   159.788954   957.53380   0.0002794   0.0582087
    11     100.02     18.0153   157.140329   957.53385   0.0002794   0.0582087
    12     100.02     18.0154   154.341238   957.53385   0.0002794   0.0582087
    13     100.02     18.0154   151.466516   957.53384   0.0002794   0.0582087
    14     100.02     18.0154   148.732936   957.53385   0.0002794   0.0582087
    15     100.02     18.0154   145.268494   957.53386   0.0002794   0.0582087
    16     100.02     18.0155   141.492109   957.53377   0.0002794   0.0582087
    17     100.02     18.0171   137.219506   957.53244   0.0002795   0.0582078
    18     100.04     18.0444   131.019749   957.51058   0.0002799   0.0581930
    19     100.30     18.4735   114.230267   957.16874   0.0002870   0.0579610
    20     103.94     23.9634    95.303789   952.89944   0.0003823   0.0549847

 SIMSCI                       R                                       PAGE P-23
 PROJECT                PRO/II PROCESS ENGINEERING  10.2 (64 bit)             
 PROBLEM                                 OUTPUT                                
                                     COLUMN SUMMARY                    07/29/19
 ================ ** WARNING - PROBLEM SOLUTION NOT REACHED ** ================
 
                             UNIT 10, 'T2'  (Cont)
 
 TRAY MOLAR COMPOSITIONS
 
                               TRAY 1                      TRAY 2
     COMPONENT              X          Y                X          Y
                       ----------  ----------      ----------  ----------
    1 H2O                 0.99999     0.93280         1.00000     0.99999
    2 MEA              8.0054E-09  4.3744E-11      1.2120E-06  7.6810E-09
    3 CO2              1.3917E-05     0.06716      3.0586E-08  1.4448E-05
    4 N2               2.6224E-10  3.2783E-05      2.4506E-15  2.6275E-10
    5 O2               4.7320E-11  3.7510E-06      6.9259E-16  4.7423E-11
 
  RATE, K*KG-MOL/HR       9869.15    8.84E-02        11226.77     9869.24
 
 
                               TRAY 3                      TRAY 4
     COMPONENT              X          Y                X          Y
                       ----------  ----------      ----------  ----------
    1 H2O                 1.00000     1.00000         1.00000     1.00000
    2 MEA              1.3415E-06  2.1420E-08      1.4205E-06  5.7121E-08
    3 CO2              1.9986E-10  3.0586E-08      7.3880E-12  1.9986E-10
    4 N2               2.2844E-20  2.4506E-15      2.1260E-25  2.2844E-20
    5 O2               1.0111E-20  6.9259E-16      1.4739E-25  1.0111E-20
 
  RATE, K*KG-MOL/HR      10407.10    11226.75         9858.90    10407.08
 
 
                               TRAY 5                      TRAY 6
     COMPONENT              X          Y                X          Y
                       ----------  ----------      ----------  ----------
    1 H2O                 1.00000     1.00000         1.00000     1.00000
    2 MEA              1.4804E-06  6.4747E-08      1.5330E-06  7.9942E-08
    3 CO2              3.5821E-13  7.3880E-12      3.8246E-14  3.5821E-13
    4 N2               1.9777E-30  2.1260E-25      1.8391E-35  1.9777E-30
    5 O2               2.1476E-30  1.4739E-25      3.1286E-35  2.1476E-30
 
  RATE, K*KG-MOL/HR       9544.06     9858.88         9255.94     9544.04
 
 
                               TRAY 7                      TRAY 8
     COMPONENT              X          Y                X          Y
                       ----------  ----------      ----------  ----------
    1 H2O                 1.00000     1.00000         1.00000     1.00000
    2 MEA              1.5578E-06  8.8926E-08      1.5779E-06  9.1546E-08
    3 CO2              8.3510E-15  3.8246E-14      2.2138E-15  8.3510E-15
    4 N2                  0.00000     0.00000         0.00000     0.00000
    5 O2                  0.00000     0.00000         0.00000     0.00000
 
  RATE, K*KG-MOL/HR       9115.89     9255.92         9002.66     9115.87

 SIMSCI                       R                                       PAGE P-24
 PROJECT                PRO/II PROCESS ENGINEERING  10.2 (64 bit)             
 PROBLEM                                 OUTPUT                                
                                     COLUMN SUMMARY                    07/29/19
 ================ ** WARNING - PROBLEM SOLUTION NOT REACHED ** ================
 
                             UNIT 10, 'T2'  (Cont)
 
                               TRAY 9                     TRAY 10
     COMPONENT              X          Y                X          Y
                       ----------  ----------      ----------  ----------
    1 H2O                 1.00000     1.00000         1.00000     1.00000
    2 MEA              1.6018E-06  9.3172E-08      1.6290E-06  9.4811E-08
    3 CO2              6.0854E-16  2.2138E-15      1.6918E-16  6.0854E-16
    4 N2                  0.00000     0.00000         0.00000     0.00000
    5 O2                  0.00000     0.00000         0.00000     0.00000
 
  RATE, K*KG-MOL/HR       8869.60     9002.64         8722.58     8869.58
 
 
                              TRAY 11                     TRAY 12
     COMPONENT              X          Y                X          Y
                       ----------  ----------      ----------  ----------
    1 H2O                 1.00000     1.00000         1.00000     1.00000
    2 MEA              1.6587E-06  9.6585E-08      1.6909E-06  9.8557E-08
    3 CO2              4.7460E-17  1.6918E-16      1.3539E-17  4.7460E-17
    4 N2                  0.00000     0.00000         0.00000     0.00000
    5 O2                  0.00000     0.00000         0.00000     0.00000
 
  RATE, K*KG-MOL/HR       8567.21     8722.56         8407.64     8567.19
 
 
                              TRAY 13                     TRAY 14
     COMPONENT              X          Y                X          Y
                       ----------  ----------      ----------  ----------
    1 H2O                 1.00000     1.00000         1.00000     1.00000
    2 MEA              1.7303E-06  1.0113E-07      1.9037E-06  1.1129E-07
    3 CO2              4.0243E-18  1.3539E-17      1.2067E-18  4.0239E-18
    4 N2                  0.00000     0.00000         0.00000     0.00000
    5 O2                  0.00000     0.00000         0.00000     0.00000
 
  RATE, K*KG-MOL/HR       8255.90     8407.61         8063.59     8255.88
 
 
                              TRAY 15                     TRAY 16
     COMPONENT              X          Y                X          Y
                       ----------  ----------      ----------  ----------
    1 H2O                 1.00000     1.00000         0.99996     1.00000
    2 MEA              4.2057E-06  2.4604E-07      4.2623E-05  2.5039E-06
    3 CO2              3.6737E-19  1.2063E-18      1.2103E-19  3.6699E-19
    4 N2                  0.00000     0.00000         0.00000     0.00000
    5 O2                  0.00000     0.00000         0.00000     0.00000
 
  RATE, K*KG-MOL/HR       7853.93     8063.57         7616.06     7853.91

 SIMSCI                       R                                       PAGE P-25
 PROJECT                PRO/II PROCESS ENGINEERING  10.2 (64 bit)             
 PROBLEM                                 OUTPUT                                
                                     COLUMN SUMMARY                    07/29/19
 ================ ** WARNING - PROBLEM SOLUTION NOT REACHED ** ================
 
                             UNIT 10, 'T2'  (Cont)
 
                              TRAY 17                     TRAY 18
     COMPONENT              X          Y                X          Y
                       ----------  ----------      ----------  ----------
    1 H2O                 0.99932     0.99996         0.98936     0.99933
    2 MEA              6.7651E-04  4.0868E-05         0.01064  6.7467E-04
    3 CO2              7.9609E-20  1.2064E-19      6.1072E-19  7.9202E-20
    4 N2                  0.00000     0.00000         0.00000     0.00000
    5 O2                  0.00000     0.00000         0.00000     0.00000
 
  RATE, K*KG-MOL/HR       7260.96     7616.04         6183.46     7260.94
 
 
                              TRAY 19                     TRAY 20
     COMPONENT              X          Y                X          Y
                       ----------  ----------      ----------  ----------
    1 H2O                 0.86189     0.98936         0.34588     0.86189
    2 MEA                 0.13811     0.01064         0.65412     0.13811
    3 CO2              5.7806E-17  6.1024E-19      1.4481E-16  5.7806E-17
    4 N2                  0.00000     0.00000         0.00000     0.00000
    5 O2                  0.00000     0.00000         0.00000     0.00000
 
  RATE, K*KG-MOL/HR       3977.05     6183.44        2.04E-02     3977.03

 SIMSCI                       R                                       PAGE P-26
 PROJECT                PRO/II PROCESS ENGINEERING  10.2 (64 bit)             
 PROBLEM                                 OUTPUT                                
                              STREAM MOLAR COMPONENT RATES             07/29/19
 ================ ** WARNING - PROBLEM SOLUTION NOT REACHED ** ================
 
 STREAM ID                            S1           S2           S3           S4
        NAME
        PHASE                      VAPOR       LIQUID        VAPOR       LIQUID
    THERMO ID                     AMIN01       AMIN01       AMIN01       AMIN01
  
 FLUID RATES, KG-MOL/HR
    1  H2O                        0.6028      90.4834       1.5959      89.4902
    2  MEA                        0.0000      13.3693   2.8174E-03      13.3665
    3  CO2                        2.8375       3.1017   4.8828E-03       5.9343
    4  N2                        18.2184       0.0000      18.2155   2.8967E-03
    5  O2                         0.9968       0.0000       0.9965   3.3144E-04
 
 TOTAL RATE, KG-MOL/HR           22.6555     106.9544      20.8157     108.7942
 
 TEMPERATURE, C                  59.2000      40.1000      39.8989      51.5853
 PRESSURE, ATM                    1.0100       1.6000       0.8000       1.0000
 ENTHALPY, M*KJ/HR                0.0862       0.1228       0.0797       0.1293
 MOLECULAR WEIGHT                29.9263      24.1527      27.4460      24.7249
 MOLE FRAC VAPOR                  1.0000       0.0000       1.0000       0.0000
 MOLE FRAC LIQUID                 0.0000       1.0000       0.0000       1.0000
 
 
 STREAM ID                            S5           S6           S7           S8
        NAME
        PHASE                     LIQUID        MIXED        VAPOR       LIQUID
    THERMO ID                     AMIN01       AMIN01       AMIN01       AMIN01
  
 FLUID RATES, KG-MOL/HR
    1  H2O                       89.4902      89.4902      82.4226       7.0677
    2  MEA                       13.3665      13.3665   3.8653E-09      13.3665
    3  CO2                        5.9343       5.9343       5.9343   2.9591E-15
    4  N2                     2.8967E-03   2.8967E-03   2.8967E-03       0.0000
    5  O2                     3.3144E-04   3.3144E-04   3.3144E-04       0.0000
 
 TOTAL RATE, KG-MOL/HR          108.7942     108.7942      88.3600      20.4342
 
 TEMPERATURE, C                  51.6178     101.6178      99.3977     128.2367
 PRESSURE, ATM                    2.0000       2.0000       1.0000       1.0000
 ENTHALPY, M*KJ/HR                0.1296       0.6155       4.1004       0.3557
 MOLECULAR WEIGHT                24.7249      24.7249      19.7614      46.1874
 MOLE FRAC VAPOR                  0.0000   2.4836E-03       1.0000       0.0000
 MOLE FRAC LIQUID                 1.0000       0.9975       0.0000       1.0000

 SIMSCI                       R                                       PAGE P-27
 PROJECT                PRO/II PROCESS ENGINEERING  10.2 (64 bit)             
 PROBLEM                                 OUTPUT                                
                                     STREAM SUMMARY                    07/29/19
 ================ ** WARNING - PROBLEM SOLUTION NOT REACHED ** ================
 
 STREAM ID                            S1           S2           S3           S4
        NAME
        PHASE                      VAPOR       LIQUID        VAPOR       LIQUID
    THERMO ID                     AMIN01       AMIN01       AMIN01       AMIN01
  
 -----  TOTAL STREAM  -----
 RATE, KG-MOL/HR                  22.655      106.954       20.816      108.794
       K*KG/HR                     0.678        2.583        0.571        2.690
 STD LIQ RATE, M3/HR               0.823        2.600        0.689        2.735
 TEMPERATURE, C                   59.200       40.100       39.899       51.585
 PRESSURE, ATM                     1.010        1.600        0.800        1.000
 MOLECULAR WEIGHT                 29.926       24.153       27.446       24.725
 ENTHALPY, M*KJ/HR             8.621E-02        0.123    7.969E-02        0.129
           KJ/KG                 127.160       47.536      139.490       48.074
 MOLE FRACTION LIQUID             0.0000       1.0000       0.0000       1.0000
 REDUCED TEMP (KAYS RULE)         2.0314       0.4886       1.8677       0.5136
         PRES (KAYS RULE)         0.0229   8.2032E-03       0.0165   5.2176E-03
 ACENTRIC FACTOR                  0.0685       0.3541       0.0606       0.3508
 WATSON K (UOPK)                   6.778        8.855        6.437        8.845
 STD LIQ DENSITY, KG/M3          823.384      993.552      829.539      983.618
         SPECIFIC GRAVITY         0.8242       0.9945       0.8304       0.9846
         API GRAVITY              40.182       10.778       38.908       12.215
 
 --------  VAPOR  ---------
 RATE, KG-MOL/HR                  22.655          N/A       20.816          N/A
       K*KG/HR                     0.678          N/A        0.571          N/A
    ACTUAL K*M3/HR                 0.612          N/A        0.668          N/A
 NORM VAP RATE(1), K*M3/HR         0.508          N/A        0.467          N/A
 SPECIFIC GRAVITY (AIR=1.0)        1.033          N/A        0.948          N/A
 MOLECULAR WEIGHT                 29.926          N/A       27.446          N/A
 ENTHALPY, KJ/KG                 127.160          N/A      139.490          N/A
 CP, KJ/KG-C                       1.022          N/A        1.077          N/A
 ACTUAL DENSITY, KG/K*M3        1108.239          N/A      854.723          N/A
 Z (FROM ACTUAL DENSITY)          1.0001          N/A       1.0000          N/A
 TH COND, W/M-K                  0.02654          N/A      0.02614          N/A
 VISCOSITY, PAS              1.88060E-05          N/A  1.80376E-05          N/A
 KVIS (VISC/DENS), CSTOKE        16.9692          N/A      21.1034          N/A
 
  (1) NORMAL VAPOR VOLUME IS 22.414 M3/KG-MOLE (273.15 K AND 1 ATM)

 SIMSCI                       R                                       PAGE P-28
 PROJECT                PRO/II PROCESS ENGINEERING  10.2 (64 bit)             
 PROBLEM                                 OUTPUT                                
                                     STREAM SUMMARY                    07/29/19
 ================ ** WARNING - PROBLEM SOLUTION NOT REACHED ** ================
 
 STREAM ID                            S1           S2           S3           S4
        NAME
        PHASE                      VAPOR       LIQUID        VAPOR       LIQUID
    THERMO ID                     AMIN01       AMIN01       AMIN01       AMIN01
  
 --------  LIQUID  --------
 RATE, KG-MOL/HR                     N/A      106.954          N/A      108.794
       K*KG/HR                       N/A        2.583          N/A        2.690
    ACTUAL M3/HR                     N/A        2.757          N/A        3.023
    ACTUAL GAL/MIN                   N/A       12.140          N/A       13.309
 STD LIQ RATE, M3/HR                 N/A        2.600          N/A        2.735
 SPECIFIC GRAVITY (H2O=1.0)          N/A       0.9945          N/A       0.9846
 MOLECULAR WEIGHT                    N/A       24.153          N/A       24.725
 ENTHALPY, KJ/KG                     N/A       47.536          N/A       48.074
 CP, KJ/KG-C                         N/A        3.577          N/A        3.499
 ACTUAL DENSITY, KG/M3               N/A      936.882          N/A      889.848
 Z (FROM ACTUAL DENSITY)             N/A   1.6047E-03          N/A   1.0427E-03
 SURFACE TENSION, N/M                N/A       0.0649          N/A       0.0612
 THERMAL COND, W/M-K                 N/A      0.24662          N/A      0.20488
 VISCOSITY, PAS                      N/A      0.00110          N/A  8.06928E-04
 KVIS (VISC/DENS), CSTOKE            N/A       1.1696          N/A       0.9068

 SIMSCI                       R                                       PAGE P-29
 PROJECT                PRO/II PROCESS ENGINEERING  10.2 (64 bit)             
 PROBLEM                                 OUTPUT                                
                                     STREAM SUMMARY                    07/29/19
 ================ ** WARNING - PROBLEM SOLUTION NOT REACHED ** ================
 
 STREAM ID                            S5           S6           S7           S8
        NAME
        PHASE                     LIQUID        MIXED        VAPOR       LIQUID
    THERMO ID                     AMIN01       AMIN01       AMIN01       AMIN01
  
 -----  TOTAL STREAM  -----
 RATE, KG-MOL/HR                 108.794      108.794       88.360       20.434
       K*KG/HR                     2.690        2.690        1.746        0.944
 STD LIQ RATE, M3/HR               2.735        2.735        1.806        0.928
 TEMPERATURE, C                   51.618      101.618       99.398      128.237
 PRESSURE, ATM                     2.000        2.000        1.000        1.000
 MOLECULAR WEIGHT                 24.725       24.725       19.761       46.187
 ENTHALPY, M*KJ/HR                 0.130        0.615        4.100        0.356
           KJ/KG                  48.188      228.813     2348.285      376.892
 MOLE FRACTION LIQUID             1.0000       0.9975       0.0000       1.0000
 REDUCED TEMP (KAYS RULE)         0.5137       0.5928       0.5970       0.6014
         PRES (KAYS RULE)         0.0104       0.0104   4.8092E-03   8.2457E-03
 ACENTRIC FACTOR                  0.3508       0.3508       0.3367       0.4115
 WATSON K (UOPK)                   8.845        8.845        8.738        9.044
 STD LIQ DENSITY, KG/M3          983.618      983.618      966.669     1016.595
         SPECIFIC GRAVITY         0.9846       0.9846       0.9676       1.0176
         API GRAVITY              12.215       12.215       14.735        7.553
 
 --------  VAPOR  ---------
 RATE, KG-MOL/HR                     N/A        0.270       88.360          N/A
       K*KG/HR                       N/A    8.786E-03        1.746          N/A
    ACTUAL K*M3/HR                   N/A    4.119E-03        2.680          N/A
 NORM VAP RATE(1), K*M3/HR           N/A    6.056E-03        1.981          N/A
 SPECIFIC GRAVITY (AIR=1.0)          N/A        1.123        0.682          N/A
 MOLECULAR WEIGHT                    N/A       32.515       19.761          N/A
 ENTHALPY, KJ/KG                     N/A      932.361     2348.285          N/A
 CP, KJ/KG-C                         N/A        1.173        1.758          N/A
 ACTUAL DENSITY, KG/K*M3             N/A     2133.003      651.590          N/A
 Z (FROM ACTUAL DENSITY)             N/A       0.9914       0.9921          N/A
 TH COND, W/M-K                      N/A      0.02340      0.02423          N/A
 VISCOSITY, PAS                      N/A  1.65465E-05  1.30733E-05          N/A
 KVIS (VISC/DENS), CSTOKE            N/A       7.7574      20.0636          N/A
 
  (1) NORMAL VAPOR VOLUME IS 22.414 M3/KG-MOLE (273.15 K AND 1 ATM)

 SIMSCI                       R                                       PAGE P-30
 PROJECT                PRO/II PROCESS ENGINEERING  10.2 (64 bit)             
 PROBLEM                                 OUTPUT                                
                                     STREAM SUMMARY                    07/29/19
 ================ ** WARNING - PROBLEM SOLUTION NOT REACHED ** ================
 
 STREAM ID                            S5           S6           S7           S8
        NAME
        PHASE                     LIQUID        MIXED        VAPOR       LIQUID
    THERMO ID                     AMIN01       AMIN01       AMIN01       AMIN01
  
 --------  LIQUID  --------
 RATE, KG-MOL/HR                 108.794      108.524          N/A       20.434
       K*KG/HR                     2.690        2.681          N/A        0.944
    ACTUAL M3/HR                   3.023        3.089          N/A        1.016
    ACTUAL GAL/MIN                13.310       13.603          N/A        4.471
 STD LIQ RATE, M3/HR               2.735        2.724          N/A        0.928
 SPECIFIC GRAVITY (H2O=1.0)       0.9846       0.9851          N/A       1.0176
 MOLECULAR WEIGHT                 24.725       24.705          N/A       46.187
 ENTHALPY, KJ/KG                  48.188      226.507          N/A      376.892
 CP, KJ/KG-C                       3.499        3.569          N/A        3.091
 ACTUAL DENSITY, KG/M3           889.834      867.832          N/A      929.342
 Z (FROM ACTUAL DENSITY)      2.0853E-03   1.8514E-03          N/A   1.5089E-03
 SURFACE TENSION, N/M             0.0612       0.0526          N/A       0.0424
 THERMAL COND, W/M-K             0.20488      0.20703          N/A      0.25039
 VISCOSITY, PAS              8.06370E-04  3.45938E-04          N/A  7.10263E-04
 KVIS (VISC/DENS), CSTOKE         0.9062       0.3986          N/A       0.7643
